REMARK  Name = 
REMARK  3 active torsions:
REMARK  status: ('A' for Active; 'I' for Inactive)
REMARK    1  A    between atoms: C_1  and  C_2
REMARK    2  A    between atoms: C_9  and  O_10
REMARK    3  A    between atoms: C_19  and  O_20
REMARK                            x       y       z     vdW  Elec       q    Type
REMARK                         _______ _______ _______ _____ _____    ______ ____
ROOT
ATOM      1  C   UNL     1      -2.467  -1.544  -1.233  0.00  0.00    +0.014 C 
ATOM      2  C   UNL     1      -2.220  -0.154  -0.592  0.00  0.00    -0.003 C 
ATOM      3  C   UNL     1      -3.514   0.385   0.051  0.00  0.00    +0.121 C 
ATOM      4  C   UNL     1      -3.623  -0.381   1.378  0.00  0.00    +0.032 C 
ATOM      5  C   UNL     1      -2.196  -0.826   1.732  0.00  0.00    +0.007 C 
ATOM      6  C   UNL     1      -1.312  -0.191   0.653  0.00  0.00    +0.001 C 
ATOM      7  C   UNL     1       0.048  -0.849   0.367  0.00  0.00    +0.000 C 
ATOM      8  C   UNL     1       0.668  -0.270  -0.953  0.00  0.00    +0.023 C 
ATOM      9  C   UNL     1       2.144   0.082  -0.855  0.00  0.00    -0.041 A 
ATOM     10  C   UNL     1       2.708   0.474   0.372  0.00  0.00    -0.040 A 
ATOM     11  C   UNL     1       1.852   0.461   1.607  0.00  0.00    +0.036 C 
ATOM     12  C   UNL     1       4.049   0.875   0.431  0.00  0.00    +0.049 A 
ATOM     13  C   UNL     1       4.825   0.860  -0.724  0.00  0.00    +0.117 A 
ATOM     14  C   UNL     1       4.286   0.459  -1.938  0.00  0.00    +0.046 A 
ATOM     15  C   UNL     1       2.947   0.075  -2.006  0.00  0.00    +0.008 A 
ATOM     16  C   UNL     1      -0.095   0.969  -1.490  0.00  0.00    +0.009 C 
ATOM     17  C   UNL     1       0.982  -0.789   1.591  0.00  0.00    +0.009 C 
ATOM     18  C   UNL     1      -1.611   0.777  -1.655  0.00  0.00    +0.010 C 
ENDROOT
BRANCH   3  19
ATOM     19  O   UNL     1      -4.656   0.195  -0.761  0.00  0.00    -0.391 OA
ATOM     20  H   UNL     1      -5.430   0.487  -0.251  0.00  0.00    +0.210 HD
ENDBRANCH   3  19
BRANCH  13  21
ATOM     21  O   UNL     1       6.136   1.236  -0.704  0.00  0.00    -0.507 OA
ATOM     22  H   UNL     1       6.370   1.486   0.205  0.00  0.00    +0.292 HD
ENDBRANCH  13  21
TORSDOF 2
